<additional xmlns:xsi="http://www.w3.org/2001/XMLSchema-instance" xsi:noNamespaceSchemaLocation="http://sumo.dlr.de/xsd/additional_file.xsd">
    <e3Detector id="e3_0_2i" freq="30" file="e3output.xml">
        <detEntry lane="2i_0" pos="98.55"/>
        <detEntry lane="2i_1" pos="98.55"/>
        <detEntry lane="2i_2" pos="98.55"/>
        <detExit lane="2i_0" pos="-.1"/>
        <detExit lane="2i_1" pos="-.1"/>
        <detExit lane="2i_2" pos="-.1"/>
    </e3Detector>
    <e3Detector id="e3_0_4i" freq="30" file="e3output.xml">
        <detEntry lane="4i_0" pos="88.65"/>
        <detEntry lane="4i_1" pos="88.65"/>
        <detEntry lane="4i_2" pos="88.65"/>
        <detEntry lane="4i_3" pos="88.65"/>
        <detExit lane="4i_0" pos="-.1"/>
        <detExit lane="4i_1" pos="-.1"/>
        <detExit lane="4i_2" pos="-.1"/>
        <detExit lane="4i_3" pos="-.1"/>
    </e3Detector>
</additional>
