<?xml version="1.0" encoding="UTF-8"?>

<configuration >

    <input>
        <net-file value="cross.net.xml"/>
        <route-files value="cross.rou.xml"/>
        <additional-files value="e3.add.xml"/>
        <!-- value="cross.det.xml -->

    </input>

    <time>
        <begin value="0"/>
    </time>

    <report>
        <verbose value="true"/>
        <no-step-log value="true"/>
    </report>
</configuration>
