<routes>
        <vType id="typePassenger" accel="0.8" decel="4.5" sigma="0.5" length="5" minGap="2.5" maxSpeed="16.67" guiShape="passenger"/>
        <vType id="typeBus" accel="0.8" decel="4.5"
        color="1,0,0" sigma="0.5" length="5" minGap="3" maxSpeed="25" guiShape="emergency"/>

        <route id="2-1-4" edges="2i 1i 4o" />
        <route id="2-1-5" edges="2i 1i 5o" />
        <route id="3-1-4"  edges="3i 1i 4o" />
        <route id="3-1-5"  edges="3i 1i 5o" />
        <route id="4-1-2" edges="4i 1o 2o" />
        <route id="4-1-3" edges="4i 1o 3o" />
        <route id="5-1-2" edges="5i 1o 2o" />
        <route id="5-1-3" edges="5i 1o 3o" />
    <vehicle id="0" type="typePassenger" route="4-1-2" depart="0" />
    <vehicle id="1" type="typePassenger" route="3-1-5" depart="1" />
    <vehicle id="2" type="typeBus" route="5-1-3" depart="2" />
    <vehicle id="3" type="typePassenger" route="4-1-3" depart="3" />
    <vehicle id="4" type="typePassenger" route="5-1-2" depart="4" />
    <vehicle id="5" type="typeBus" route="5-1-3" depart="5" />
    <vehicle id="6" type="typePassenger" route="3-1-4" depart="6" />
    <vehicle id="7" type="typePassenger" route="3-1-5" depart="7" />
    <vehicle id="8" type="typeBus" route="2-1-4" depart="8" />
    <vehicle id="9" type="typePassenger" route="3-1-4" depart="9" />
    <vehicle id="10" type="typePassenger" route="4-1-2" depart="10" />
    <vehicle id="11" type="typePassenger" route="4-1-3" depart="11" />
    <vehicle id="12" type="typePassenger" route="3-1-4" depart="12" />
    <vehicle id="13" type="typePassenger" route="3-1-4" depart="13" />
    <vehicle id="14" type="typeBus" route="5-1-3" depart="14" />
    <vehicle id="15" type="typePassenger" route="2-1-5" depart="15" />
    <vehicle id="16" type="typeBus" route="2-1-4" depart="16" />
    <vehicle id="17" type="typePassenger" route="5-1-2" depart="17" />
    <vehicle id="18" type="typePassenger" route="4-1-2" depart="18" />
    <vehicle id="19" type="typePassenger" route="3-1-5" depart="19" />
    <vehicle id="20" type="typePassenger" route="2-1-5" depart="20" />
    <vehicle id="21" type="typeBus" route="2-1-4" depart="21" />
    <vehicle id="22" type="typePassenger" route="3-1-4" depart="22" />
    <vehicle id="23" type="typeBus" route="5-1-3" depart="23" />
    <vehicle id="24" type="typeBus" route="2-1-4" depart="24" />
    <vehicle id="25" type="typePassenger" route="4-1-3" depart="25" />
    <vehicle id="26" type="typePassenger" route="5-1-2" depart="26" />
    <vehicle id="27" type="typePassenger" route="3-1-4" depart="27" />
    <vehicle id="28" type="typeBus" route="2-1-4" depart="28" />
    <vehicle id="29" type="typePassenger" route="3-1-4" depart="29" />
    <vehicle id="30" type="typePassenger" route="5-1-2" depart="30" />
    <vehicle id="31" type="typePassenger" route="4-1-3" depart="31" />
    <vehicle id="32" type="typePassenger" route="5-1-2" depart="32" />
    <vehicle id="33" type="typePassenger" route="3-1-4" depart="33" />
    <vehicle id="34" type="typePassenger" route="5-1-2" depart="34" />
    <vehicle id="35" type="typePassenger" route="5-1-2" depart="35" />
    <vehicle id="36" type="typePassenger" route="3-1-4" depart="36" />
    <vehicle id="37" type="typePassenger" route="5-1-2" depart="37" />
    <vehicle id="38" type="typePassenger" route="3-1-4" depart="38" />
    <vehicle id="39" type="typeBus" route="5-1-3" depart="39" />
    <vehicle id="40" type="typePassenger" route="3-1-4" depart="40" />
    <vehicle id="41" type="typePassenger" route="3-1-4" depart="41" />
    <vehicle id="42" type="typePassenger" route="4-1-2" depart="42" />
    <vehicle id="43" type="typePassenger" route="5-1-2" depart="43" />
    <vehicle id="44" type="typeBus" route="2-1-4" depart="44" />
    <vehicle id="45" type="typePassenger" route="3-1-5" depart="45" />
    <vehicle id="46" type="typeBus" route="2-1-4" depart="46" />
    <vehicle id="47" type="typePassenger" route="3-1-5" depart="47" />
    <vehicle id="48" type="typePassenger" route="2-1-5" depart="48" />
    <vehicle id="49" type="typePassenger" route="5-1-2" depart="49" />
    <vehicle id="50" type="typePassenger" route="4-1-2" depart="50" />
    <vehicle id="51" type="typePassenger" route="3-1-5" depart="51" />
    <vehicle id="52" type="typeBus" route="5-1-3" depart="52" />
    <vehicle id="53" type="typePassenger" route="5-1-2" depart="53" />
    <vehicle id="54" type="typePassenger" route="3-1-5" depart="54" />
    <vehicle id="55" type="typePassenger" route="5-1-2" depart="55" />
    <vehicle id="56" type="typeBus" route="5-1-3" depart="56" />
    <vehicle id="57" type="typePassenger" route="3-1-4" depart="57" />
    <vehicle id="58" type="typeBus" route="2-1-4" depart="58" />
    <vehicle id="59" type="typeBus" route="5-1-3" depart="59" />
    <vehicle id="60" type="typePassenger" route="5-1-2" depart="60" />
    <vehicle id="61" type="typePassenger" route="5-1-2" depart="61" />
    <vehicle id="62" type="typePassenger" route="4-1-3" depart="62" />
    <vehicle id="63" type="typePassenger" route="4-1-2" depart="63" />
    <vehicle id="64" type="typeBus" route="2-1-4" depart="64" />
    <vehicle id="65" type="typePassenger" route="3-1-5" depart="65" />
    <vehicle id="66" type="typePassenger" route="4-1-3" depart="66" />
    <vehicle id="67" type="typePassenger" route="5-1-2" depart="67" />
    <vehicle id="68" type="typePassenger" route="3-1-4" depart="68" />
    <vehicle id="69" type="typePassenger" route="4-1-2" depart="69" />
    <vehicle id="70" type="typePassenger" route="3-1-5" depart="70" />
    <vehicle id="71" type="typePassenger" route="3-1-4" depart="71" />
    <vehicle id="72" type="typePassenger" route="4-1-2" depart="72" />
    <vehicle id="73" type="typePassenger" route="3-1-5" depart="73" />
    <vehicle id="74" type="typePassenger" route="3-1-4" depart="74" />
    <vehicle id="75" type="typeBus" route="5-1-3" depart="75" />
    <vehicle id="76" type="typePassenger" route="4-1-3" depart="76" />
    <vehicle id="77" type="typePassenger" route="4-1-2" depart="77" />
    <vehicle id="78" type="typeBus" route="2-1-4" depart="78" />
    <vehicle id="79" type="typePassenger" route="4-1-2" depart="79" />
    <vehicle id="80" type="typePassenger" route="3-1-5" depart="80" />
    <vehicle id="81" type="typePassenger" route="3-1-4" depart="81" />
    <vehicle id="82" type="typePassenger" route="2-1-5" depart="82" />
    <vehicle id="83" type="typePassenger" route="2-1-5" depart="83" />
    <vehicle id="84" type="typePassenger" route="3-1-5" depart="84" />
    <vehicle id="85" type="typePassenger" route="4-1-2" depart="85" />
    <vehicle id="86" type="typePassenger" route="4-1-2" depart="86" />
    <vehicle id="87" type="typePassenger" route="5-1-2" depart="87" />
    <vehicle id="88" type="typePassenger" route="3-1-4" depart="88" />
    <vehicle id="89" type="typePassenger" route="3-1-5" depart="89" />
    <vehicle id="90" type="typePassenger" route="3-1-5" depart="90" />
    <vehicle id="91" type="typePassenger" route="3-1-4" depart="91" />
    <vehicle id="92" type="typePassenger" route="2-1-5" depart="92" />
    <vehicle id="93" type="typeBus" route="2-1-4" depart="93" />
    <vehicle id="94" type="typePassenger" route="4-1-3" depart="94" />
    <vehicle id="95" type="typePassenger" route="5-1-2" depart="95" />
    <vehicle id="96" type="typePassenger" route="2-1-5" depart="96" />
    <vehicle id="97" type="typePassenger" route="2-1-5" depart="97" />
    <vehicle id="98" type="typePassenger" route="3-1-5" depart="98" />
    <vehicle id="99" type="typePassenger" route="4-1-2" depart="99" />
    <vehicle id="100" type="typeBus" route="2-1-4" depart="100" />
    <vehicle id="101" type="typePassenger" route="3-1-5" depart="101" />
    <vehicle id="102" type="typeBus" route="2-1-4" depart="102" />
    <vehicle id="103" type="typePassenger" route="4-1-2" depart="103" />
    <vehicle id="104" type="typeBus" route="5-1-3" depart="104" />
    <vehicle id="105" type="typePassenger" route="3-1-5" depart="105" />
    <vehicle id="106" type="typePassenger" route="3-1-5" depart="106" />
    <vehicle id="107" type="typePassenger" route="3-1-4" depart="107" />
    <vehicle id="108" type="typeBus" route="2-1-4" depart="108" />
    <vehicle id="109" type="typePassenger" route="3-1-4" depart="109" />
    <vehicle id="110" type="typePassenger" route="5-1-2" depart="110" />
    <vehicle id="111" type="typePassenger" route="4-1-2" depart="111" />
    <vehicle id="112" type="typeBus" route="2-1-4" depart="112" />
    <vehicle id="113" type="typeBus" route="5-1-3" depart="113" />
    <vehicle id="114" type="typeBus" route="5-1-3" depart="114" />
    <vehicle id="115" type="typeBus" route="5-1-3" depart="115" />
    <vehicle id="116" type="typePassenger" route="3-1-5" depart="116" />
    <vehicle id="117" type="typePassenger" route="2-1-5" depart="117" />
    <vehicle id="118" type="typePassenger" route="5-1-2" depart="118" />
    <vehicle id="119" type="typePassenger" route="3-1-5" depart="119" />
    <vehicle id="120" type="typePassenger" route="3-1-5" depart="120" />
    <vehicle id="121" type="typePassenger" route="3-1-4" depart="121" />
    <vehicle id="122" type="typePassenger" route="3-1-5" depart="122" />
    <vehicle id="123" type="typePassenger" route="4-1-3" depart="123" />
    <vehicle id="124" type="typePassenger" route="3-1-4" depart="124" />
    <vehicle id="125" type="typePassenger" route="4-1-2" depart="125" />
    <vehicle id="126" type="typePassenger" route="3-1-4" depart="126" />
    <vehicle id="127" type="typePassenger" route="3-1-5" depart="127" />
    <vehicle id="128" type="typePassenger" route="2-1-5" depart="128" />
    <vehicle id="129" type="typePassenger" route="5-1-2" depart="129" />
    <vehicle id="130" type="typePassenger" route="5-1-2" depart="130" />
    <vehicle id="131" type="typePassenger" route="3-1-4" depart="131" />
    <vehicle id="132" type="typePassenger" route="4-1-2" depart="132" />
    <vehicle id="133" type="typePassenger" route="5-1-2" depart="133" />
    <vehicle id="134" type="typePassenger" route="4-1-2" depart="134" />
    <vehicle id="135" type="typePassenger" route="5-1-2" depart="135" />
    <vehicle id="136" type="typePassenger" route="3-1-5" depart="136" />
    <vehicle id="137" type="typePassenger" route="4-1-3" depart="137" />
    <vehicle id="138" type="typeBus" route="2-1-4" depart="138" />
    <vehicle id="139" type="typePassenger" route="4-1-2" depart="139" />
    <vehicle id="140" type="typePassenger" route="3-1-4" depart="140" />
    <vehicle id="141" type="typePassenger" route="3-1-4" depart="141" />
    <vehicle id="142" type="typePassenger" route="2-1-5" depart="142" />
    <vehicle id="143" type="typeBus" route="5-1-3" depart="143" />
    <vehicle id="144" type="typePassenger" route="2-1-5" depart="144" />
    <vehicle id="145" type="typePassenger" route="3-1-5" depart="145" />
    <vehicle id="146" type="typePassenger" route="3-1-5" depart="146" />
    <vehicle id="147" type="typeBus" route="5-1-3" depart="147" />
    <vehicle id="148" type="typePassenger" route="4-1-2" depart="148" />
    <vehicle id="149" type="typeBus" route="5-1-3" depart="149" />
    <vehicle id="150" type="typePassenger" route="5-1-2" depart="150" />
    <vehicle id="151" type="typePassenger" route="3-1-5" depart="151" />
    <vehicle id="152" type="typePassenger" route="3-1-5" depart="152" />
    <vehicle id="153" type="typePassenger" route="4-1-3" depart="153" />
    <vehicle id="154" type="typePassenger" route="3-1-5" depart="154" />
    <vehicle id="155" type="typeBus" route="2-1-4" depart="155" />
    <vehicle id="156" type="typePassenger" route="5-1-2" depart="156" />
    <vehicle id="157" type="typeBus" route="2-1-4" depart="157" />
    <vehicle id="158" type="typePassenger" route="5-1-2" depart="158" />
    <vehicle id="159" type="typePassenger" route="4-1-2" depart="159" />
    <vehicle id="160" type="typeBus" route="5-1-3" depart="160" />
    <vehicle id="161" type="typePassenger" route="4-1-2" depart="161" />
    <vehicle id="162" type="typePassenger" route="4-1-2" depart="162" />
    <vehicle id="163" type="typeBus" route="5-1-3" depart="163" />
    <vehicle id="164" type="typeBus" route="2-1-4" depart="164" />
    <vehicle id="165" type="typeBus" route="2-1-4" depart="165" />
    <vehicle id="166" type="typeBus" route="5-1-3" depart="166" />
    <vehicle id="167" type="typeBus" route="5-1-3" depart="167" />
    <vehicle id="168" type="typeBus" route="5-1-3" depart="168" />
    <vehicle id="169" type="typePassenger" route="3-1-4" depart="169" />
    <vehicle id="170" type="typePassenger" route="2-1-5" depart="170" />
    <vehicle id="171" type="typeBus" route="2-1-4" depart="171" />
    <vehicle id="172" type="typePassenger" route="4-1-3" depart="172" />
    <vehicle id="173" type="typePassenger" route="4-1-2" depart="173" />
    <vehicle id="174" type="typePassenger" route="2-1-5" depart="174" />
    <vehicle id="175" type="typeBus" route="5-1-3" depart="175" />
    <vehicle id="176" type="typePassenger" route="4-1-2" depart="176" />
    <vehicle id="177" type="typeBus" route="5-1-3" depart="177" />
    <vehicle id="178" type="typePassenger" route="3-1-5" depart="178" />
    <vehicle id="179" type="typePassenger" route="3-1-5" depart="179" />
    <vehicle id="180" type="typeBus" route="5-1-3" depart="180" />
    <vehicle id="181" type="typePassenger" route="3-1-4" depart="181" />
    <vehicle id="182" type="typeBus" route="2-1-4" depart="182" />
    <vehicle id="183" type="typePassenger" route="5-1-2" depart="183" />
    <vehicle id="184" type="typePassenger" route="3-1-5" depart="184" />
    <vehicle id="185" type="typePassenger" route="3-1-5" depart="185" />
    <vehicle id="186" type="typePassenger" route="3-1-5" depart="186" />
    <vehicle id="187" type="typeBus" route="5-1-3" depart="187" />
    <vehicle id="188" type="typeBus" route="2-1-4" depart="188" />
    <vehicle id="189" type="typePassenger" route="4-1-3" depart="189" />
    <vehicle id="190" type="typePassenger" route="4-1-2" depart="190" />
    <vehicle id="191" type="typeBus" route="5-1-3" depart="191" />
    <vehicle id="192" type="typeBus" route="2-1-4" depart="192" />
    <vehicle id="193" type="typeBus" route="2-1-4" depart="193" />
    <vehicle id="194" type="typePassenger" route="4-1-3" depart="194" />
    <vehicle id="195" type="typePassenger" route="5-1-2" depart="195" />
    <vehicle id="196" type="typePassenger" route="3-1-5" depart="196" />
    <vehicle id="197" type="typeBus" route="2-1-4" depart="197" />
    <vehicle id="198" type="typePassenger" route="2-1-5" depart="198" />
    <vehicle id="199" type="typePassenger" route="5-1-2" depart="199" />
    <vehicle id="200" type="typePassenger" route="3-1-5" depart="200" />
    <vehicle id="201" type="typePassenger" route="5-1-2" depart="201" />
    <vehicle id="202" type="typePassenger" route="3-1-5" depart="202" />
    <vehicle id="203" type="typeBus" route="5-1-3" depart="203" />
    <vehicle id="204" type="typeBus" route="5-1-3" depart="204" />
    <vehicle id="205" type="typePassenger" route="4-1-2" depart="205" />
    <vehicle id="206" type="typePassenger" route="4-1-2" depart="206" />
    <vehicle id="207" type="typePassenger" route="4-1-2" depart="207" />
    <vehicle id="208" type="typeBus" route="2-1-4" depart="208" />
    <vehicle id="209" type="typeBus" route="2-1-4" depart="209" />
    <vehicle id="210" type="typeBus" route="5-1-3" depart="210" />
    <vehicle id="211" type="typePassenger" route="4-1-3" depart="211" />
    <vehicle id="212" type="typePassenger" route="4-1-2" depart="212" />
    <vehicle id="213" type="typePassenger" route="5-1-2" depart="213" />
    <vehicle id="214" type="typePassenger" route="2-1-5" depart="214" />
    <vehicle id="215" type="typePassenger" route="4-1-2" depart="215" />
    <vehicle id="216" type="typeBus" route="5-1-3" depart="216" />
    <vehicle id="217" type="typeBus" route="5-1-3" depart="217" />
    <vehicle id="218" type="typePassenger" route="5-1-2" depart="218" />
    <vehicle id="219" type="typePassenger" route="4-1-3" depart="219" />
    <vehicle id="220" type="typePassenger" route="3-1-5" depart="220" />
    <vehicle id="221" type="typeBus" route="2-1-4" depart="221" />
    <vehicle id="222" type="typeBus" route="2-1-4" depart="222" />
    <vehicle id="223" type="typePassenger" route="4-1-2" depart="223" />
    <vehicle id="224" type="typeBus" route="2-1-4" depart="224" />
    <vehicle id="225" type="typePassenger" route="5-1-2" depart="225" />
    <vehicle id="226" type="typePassenger" route="5-1-2" depart="226" />
    <vehicle id="227" type="typePassenger" route="3-1-4" depart="227" />
    <vehicle id="228" type="typeBus" route="2-1-4" depart="228" />
    <vehicle id="229" type="typePassenger" route="4-1-3" depart="229" />
    <vehicle id="230" type="typePassenger" route="4-1-2" depart="230" />
    <vehicle id="231" type="typePassenger" route="3-1-5" depart="231" />
    <vehicle id="232" type="typeBus" route="2-1-4" depart="232" />
    <vehicle id="233" type="typePassenger" route="4-1-2" depart="233" />
    <vehicle id="234" type="typePassenger" route="3-1-5" depart="234" />
    <vehicle id="235" type="typePassenger" route="2-1-5" depart="235" />
    <vehicle id="236" type="typeBus" route="5-1-3" depart="236" />
    <vehicle id="237" type="typePassenger" route="3-1-4" depart="237" />
    <vehicle id="238" type="typePassenger" route="4-1-2" depart="238" />
    <vehicle id="239" type="typePassenger" route="4-1-3" depart="239" />
    <vehicle id="240" type="typePassenger" route="3-1-5" depart="240" />
    <vehicle id="241" type="typePassenger" route="2-1-5" depart="241" />
    <vehicle id="242" type="typeBus" route="5-1-3" depart="242" />
    <vehicle id="243" type="typePassenger" route="4-1-2" depart="243" />
    <vehicle id="244" type="typePassenger" route="3-1-4" depart="244" />
    <vehicle id="245" type="typePassenger" route="2-1-5" depart="245" />
    <vehicle id="246" type="typePassenger" route="2-1-5" depart="246" />
    <vehicle id="247" type="typePassenger" route="5-1-2" depart="247" />
    <vehicle id="248" type="typePassenger" route="3-1-5" depart="248" />
    <vehicle id="249" type="typeBus" route="2-1-4" depart="249" />
    <vehicle id="250" type="typePassenger" route="5-1-2" depart="250" />
    <vehicle id="251" type="typeBus" route="5-1-3" depart="251" />
    <vehicle id="252" type="typePassenger" route="2-1-5" depart="252" />
    <vehicle id="253" type="typePassenger" route="3-1-5" depart="253" />
    <vehicle id="254" type="typePassenger" route="4-1-3" depart="254" />
    <vehicle id="255" type="typePassenger" route="4-1-2" depart="255" />
    <vehicle id="256" type="typePassenger" route="2-1-5" depart="256" />
    <vehicle id="257" type="typeBus" route="5-1-3" depart="257" />
    <vehicle id="258" type="typePassenger" route="2-1-5" depart="258" />
    <vehicle id="259" type="typePassenger" route="3-1-5" depart="259" />
    <vehicle id="260" type="typeBus" route="5-1-3" depart="260" />
    <vehicle id="261" type="typeBus" route="5-1-3" depart="261" />
    <vehicle id="262" type="typePassenger" route="3-1-5" depart="262" />
    <vehicle id="263" type="typeBus" route="2-1-4" depart="263" />
    <vehicle id="264" type="typeBus" route="2-1-4" depart="264" />
    <vehicle id="265" type="typePassenger" route="2-1-5" depart="265" />
    <vehicle id="266" type="typePassenger" route="5-1-2" depart="266" />
    <vehicle id="267" type="typePassenger" route="4-1-2" depart="267" />
    <vehicle id="268" type="typePassenger" route="2-1-5" depart="268" />
    <vehicle id="269" type="typePassenger" route="3-1-4" depart="269" />
    <vehicle id="270" type="typeBus" route="5-1-3" depart="270" />
    <vehicle id="271" type="typePassenger" route="3-1-4" depart="271" />
    <vehicle id="272" type="typeBus" route="5-1-3" depart="272" />
    <vehicle id="273" type="typeBus" route="5-1-3" depart="273" />
    <vehicle id="274" type="typePassenger" route="3-1-4" depart="274" />
    <vehicle id="275" type="typePassenger" route="4-1-3" depart="275" />
    <vehicle id="276" type="typeBus" route="2-1-4" depart="276" />
    <vehicle id="277" type="typeBus" route="5-1-3" depart="277" />
    <vehicle id="278" type="typePassenger" route="2-1-5" depart="278" />
    <vehicle id="279" type="typePassenger" route="4-1-3" depart="279" />
    <vehicle id="280" type="typePassenger" route="5-1-2" depart="280" />
    <vehicle id="281" type="typePassenger" route="2-1-5" depart="281" />
    <vehicle id="282" type="typePassenger" route="3-1-4" depart="282" />
    <vehicle id="283" type="typePassenger" route="5-1-2" depart="283" />
    <vehicle id="284" type="typePassenger" route="4-1-3" depart="284" />
    <vehicle id="285" type="typePassenger" route="5-1-2" depart="285" />
    <vehicle id="286" type="typePassenger" route="4-1-2" depart="286" />
    <vehicle id="287" type="typePassenger" route="3-1-5" depart="287" />
    <vehicle id="288" type="typeBus" route="5-1-3" depart="288" />
    <vehicle id="289" type="typePassenger" route="3-1-4" depart="289" />
    <vehicle id="290" type="typeBus" route="5-1-3" depart="290" />
    <vehicle id="291" type="typePassenger" route="4-1-3" depart="291" />
    <vehicle id="292" type="typePassenger" route="4-1-2" depart="292" />
    <vehicle id="293" type="typePassenger" route="5-1-2" depart="293" />
    <vehicle id="294" type="typeBus" route="5-1-3" depart="294" />
    <vehicle id="295" type="typePassenger" route="4-1-3" depart="295" />
    <vehicle id="296" type="typeBus" route="5-1-3" depart="296" />
    <vehicle id="297" type="typePassenger" route="3-1-5" depart="297" />
    <vehicle id="298" type="typePassenger" route="3-1-4" depart="298" />
    <vehicle id="299" type="typePassenger" route="4-1-3" depart="299" />
    <vehicle id="300" type="typePassenger" route="3-1-5" depart="300" />
    <vehicle id="301" type="typePassenger" route="3-1-5" depart="301" />
    <vehicle id="302" type="typePassenger" route="3-1-5" depart="302" />
    <vehicle id="303" type="typePassenger" route="2-1-5" depart="303" />
    <vehicle id="304" type="typePassenger" route="5-1-2" depart="304" />
    <vehicle id="305" type="typePassenger" route="2-1-5" depart="305" />
    <vehicle id="306" type="typeBus" route="2-1-4" depart="306" />
    <vehicle id="307" type="typePassenger" route="3-1-5" depart="307" />
    <vehicle id="308" type="typeBus" route="5-1-3" depart="308" />
    <vehicle id="309" type="typePassenger" route="4-1-2" depart="309" />
    <vehicle id="310" type="typePassenger" route="2-1-5" depart="310" />
    <vehicle id="311" type="typePassenger" route="3-1-5" depart="311" />
    <vehicle id="312" type="typeBus" route="2-1-4" depart="312" />
    <vehicle id="313" type="typePassenger" route="3-1-5" depart="313" />
    <vehicle id="314" type="typePassenger" route="3-1-5" depart="314" />
    <vehicle id="315" type="typeBus" route="2-1-4" depart="315" />
    <vehicle id="316" type="typePassenger" route="4-1-2" depart="316" />
    <vehicle id="317" type="typePassenger" route="4-1-3" depart="317" />
    <vehicle id="318" type="typeBus" route="2-1-4" depart="318" />
    <vehicle id="319" type="typePassenger" route="3-1-4" depart="319" />
    <vehicle id="320" type="typePassenger" route="4-1-3" depart="320" />
    <vehicle id="321" type="typeBus" route="5-1-3" depart="321" />
    <vehicle id="322" type="typePassenger" route="4-1-3" depart="322" />
    <vehicle id="323" type="typePassenger" route="2-1-5" depart="323" />
    <vehicle id="324" type="typePassenger" route="5-1-2" depart="324" />
    <vehicle id="325" type="typePassenger" route="2-1-5" depart="325" />
    <vehicle id="326" type="typePassenger" route="5-1-2" depart="326" />
    <vehicle id="327" type="typePassenger" route="3-1-5" depart="327" />
    <vehicle id="328" type="typeBus" route="2-1-4" depart="328" />
    <vehicle id="329" type="typePassenger" route="5-1-2" depart="329" />
    <vehicle id="330" type="typeBus" route="5-1-3" depart="330" />
    <vehicle id="331" type="typePassenger" route="3-1-5" depart="331" />
    <vehicle id="332" type="typePassenger" route="5-1-2" depart="332" />
    <vehicle id="333" type="typePassenger" route="2-1-5" depart="333" />
    <vehicle id="334" type="typePassenger" route="3-1-5" depart="334" />
    <vehicle id="335" type="typePassenger" route="5-1-2" depart="335" />
    <vehicle id="336" type="typeBus" route="2-1-4" depart="336" />
    <vehicle id="337" type="typeBus" route="5-1-3" depart="337" />
    <vehicle id="338" type="typePassenger" route="5-1-2" depart="338" />
    <vehicle id="339" type="typePassenger" route="3-1-5" depart="339" />
    <vehicle id="340" type="typePassenger" route="5-1-2" depart="340" />
    <vehicle id="341" type="typePassenger" route="4-1-2" depart="341" />
    <vehicle id="342" type="typeBus" route="5-1-3" depart="342" />
    <vehicle id="343" type="typePassenger" route="3-1-4" depart="343" />
    <vehicle id="344" type="typeBus" route="5-1-3" depart="344" />
    <vehicle id="345" type="typePassenger" route="3-1-4" depart="345" />
    <vehicle id="346" type="typePassenger" route="3-1-4" depart="346" />
    <vehicle id="347" type="typeBus" route="5-1-3" depart="347" />
    <vehicle id="348" type="typePassenger" route="5-1-2" depart="348" />
    <vehicle id="349" type="typeBus" route="5-1-3" depart="349" />
    <vehicle id="350" type="typePassenger" route="4-1-2" depart="350" />
    <vehicle id="351" type="typePassenger" route="4-1-2" depart="351" />
    <vehicle id="352" type="typePassenger" route="5-1-2" depart="352" />
    <vehicle id="353" type="typeBus" route="2-1-4" depart="353" />
    <vehicle id="354" type="typeBus" route="2-1-4" depart="354" />
    <vehicle id="355" type="typePassenger" route="2-1-5" depart="355" />
    <vehicle id="356" type="typePassenger" route="3-1-4" depart="356" />
    <vehicle id="357" type="typeBus" route="5-1-3" depart="357" />
    <vehicle id="358" type="typePassenger" route="3-1-4" depart="358" />
    <vehicle id="359" type="typePassenger" route="4-1-3" depart="359" />
    <vehicle id="360" type="typePassenger" route="2-1-5" depart="360" />
    <vehicle id="361" type="typeBus" route="5-1-3" depart="361" />
    <vehicle id="362" type="typePassenger" route="2-1-5" depart="362" />
    <vehicle id="363" type="typePassenger" route="3-1-4" depart="363" />
    <vehicle id="364" type="typeBus" route="2-1-4" depart="364" />
    <vehicle id="365" type="typePassenger" route="3-1-4" depart="365" />
    <vehicle id="366" type="typePassenger" route="4-1-3" depart="366" />
    <vehicle id="367" type="typePassenger" route="2-1-5" depart="367" />
    <vehicle id="368" type="typeBus" route="2-1-4" depart="368" />
    <vehicle id="369" type="typePassenger" route="4-1-3" depart="369" />
    <vehicle id="370" type="typePassenger" route="2-1-5" depart="370" />
    <vehicle id="371" type="typePassenger" route="5-1-2" depart="371" />
    <vehicle id="372" type="typePassenger" route="4-1-3" depart="372" />
    <vehicle id="373" type="typePassenger" route="4-1-2" depart="373" />
    <vehicle id="374" type="typePassenger" route="4-1-3" depart="374" />
    <vehicle id="375" type="typePassenger" route="4-1-2" depart="375" />
    <vehicle id="376" type="typePassenger" route="2-1-5" depart="376" />
    <vehicle id="377" type="typeBus" route="2-1-4" depart="377" />
    <vehicle id="378" type="typePassenger" route="3-1-4" depart="378" />
    <vehicle id="379" type="typeBus" route="2-1-4" depart="379" />
    <vehicle id="380" type="typePassenger" route="2-1-5" depart="380" />
    <vehicle id="381" type="typePassenger" route="4-1-2" depart="381" />
    <vehicle id="382" type="typeBus" route="5-1-3" depart="382" />
    <vehicle id="383" type="typePassenger" route="3-1-4" depart="383" />
    <vehicle id="384" type="typeBus" route="2-1-4" depart="384" />
    <vehicle id="385" type="typePassenger" route="4-1-3" depart="385" />
    <vehicle id="386" type="typeBus" route="5-1-3" depart="386" />
    <vehicle id="387" type="typePassenger" route="2-1-5" depart="387" />
    <vehicle id="388" type="typePassenger" route="2-1-5" depart="388" />
    <vehicle id="389" type="typePassenger" route="2-1-5" depart="389" />
    <vehicle id="390" type="typePassenger" route="4-1-2" depart="390" />
    <vehicle id="391" type="typePassenger" route="4-1-3" depart="391" />
    <vehicle id="392" type="typeBus" route="2-1-4" depart="392" />
    <vehicle id="393" type="typePassenger" route="3-1-5" depart="393" />
    <vehicle id="394" type="typeBus" route="2-1-4" depart="394" />
    <vehicle id="395" type="typePassenger" route="4-1-3" depart="395" />
    <vehicle id="396" type="typePassenger" route="2-1-5" depart="396" />
    <vehicle id="397" type="typePassenger" route="2-1-5" depart="397" />
    <vehicle id="398" type="typePassenger" route="2-1-5" depart="398" />
    <vehicle id="399" type="typePassenger" route="3-1-5" depart="399" />
    <vehicle id="400" type="typeBus" route="2-1-4" depart="400" />
    <vehicle id="401" type="typeBus" route="5-1-3" depart="401" />
    <vehicle id="402" type="typePassenger" route="3-1-4" depart="402" />
    <vehicle id="403" type="typePassenger" route="4-1-2" depart="403" />
    <vehicle id="404" type="typePassenger" route="3-1-4" depart="404" />
    <vehicle id="405" type="typeBus" route="2-1-4" depart="405" />
    <vehicle id="406" type="typePassenger" route="2-1-5" depart="406" />
    <vehicle id="407" type="typeBus" route="2-1-4" depart="407" />
    <vehicle id="408" type="typePassenger" route="2-1-5" depart="408" />
    <vehicle id="409" type="typePassenger" route="2-1-5" depart="409" />
    <vehicle id="410" type="typePassenger" route="2-1-5" depart="410" />
    <vehicle id="411" type="typePassenger" route="2-1-5" depart="411" />
    <vehicle id="412" type="typePassenger" route="2-1-5" depart="412" />
    <vehicle id="413" type="typePassenger" route="3-1-4" depart="413" />